/*--------------------------------*- C++ -*----------------------------------*\
  =========                 |
  \\      /  F ield         | OpenFOAM: The Open Source CFD Toolbox
   \\    /   O peration     | Website:  https://openfoam.org
    \\  /    A nd           | Version:  6
     \\/     M anipulation  |
\*---------------------------------------------------------------------------*/
FoamFile
{
    version     2.0;
    format      ascii;
    class       volScalarField;
    object      phii;
}
// * * * * * * * * * * * * * * * * * * * * * * * * * * * * * * * * * * * * * //

dimensions      [1 2 -3 0 0 -1 0];

internalField   uniform 0;

boundaryField
{
    insulatedWall
    {
        type            zeroGradient;
    }

    electrodeHV
    {
        type            fixedValue;
        value		uniform 2000;
    }

    electrodeG
    {
        type            fixedValue;
        value		uniform 0;
    }

    frontAndBack
    {
        type            empty;
    }
}

// ************************************************************************* //
